LAMMPS (17 Feb 2022)
package omp 0
using multi-threaded neighbor list subroutines
package omp 64
using multi-threaded neighbor list subroutines
# Pure HNS crystal, ReaxFF tests for benchmarking LAMMPS
# See README for more info

processors * * * grid twolevel 8 2 2 2

variable          steps index 100

units             real
atom_style        charge
atom_modify sort  100 0.0 # optional
dimension         3
boundary          p p p
box               tilt large

read_data         data.hns-equil
Reading data file ...
  triclinic box = (0 0 0) to (22.326 11.1412 13.778966) with tilt (0 -5.02603 0)
  reading atoms ...
  304 atoms
  reading velocities ...
  304 velocities
replicate         $x $y $z bbox
replicate         14 $y $z bbox
replicate         14 20 $z bbox
replicate         14 20 24 bbox
Replicating atoms ...
  triclinic box = (0 0 0) to (312.564 222.824 330.69518) with tilt (0 -120.62472 0)
  average # of replicas added to proc = 1240.62 out of 6720 (18.46%)
  2042880 atoms
  replicate CPU = 0.045 seconds

pair_style        reax/c NULL
pair_coeff        * * ffield.reax.hns C H O N

compute           reax all pair reax/c

neighbor          1.0 bin
neigh_modify      every 10 delay 0 check no

timestep          0.1

thermo_style      custom step temp pe press evdwl ecoul vol
thermo_modify     norm yes
#thermo            100
thermo 1

velocity          all create 300.0 41279 loop geom

fix               1 all nve
fix               2 all qeq/reax/omp 1 0.0 10.0 1e-6 reax/c dual # remove "dual" if not using USER-OMP

info              time out screen
info              time out log

Info-Info-Info-Info-Info-Info-Info-Info-Info-Info-Info
Printed on Thu Aug 11 20:19:42 2022

Total time information (MPI rank 0):
  CPU time:    0:00:10
 Wall time:    0:00:00

Info-Info-Info-Info-Info-Info-Info-Info-Info-Info-Info

run               10000

CITE-CITE-CITE-CITE-CITE-CITE-CITE-CITE-CITE-CITE-CITE-CITE-CITE

Your simulation uses code contributions which should be cited:

- pair reaxff command:

@Article{Aktulga12,
 author = {H. M. Aktulga, J. C. Fogarty, S. A. Pandit, A. Y. Grama},
 title = {Parallel reactive molecular dynamics: Numerical methods and algorithmic techniques},
 journal = {Parallel Computing},
 year =    2012,
 volume =  38,
 pages =   {245--259}
}

- pair reaxff/omp and fix qeq/reaxff/omp command:

@Article{Aktulga17,
 author =  {H. M. Aktulga, C. Knight, P. Coffman, K. A. OHearn, T. R. Shan, W. Jiang},
 title =   {Optimizing the performance of reactive molecular dynamics simulations for multi-core architectures},
 journal = {International Journal of High Performance Computing Applications},
 year =    to appear
}

CITE-CITE-CITE-CITE-CITE-CITE-CITE-CITE-CITE-CITE-CITE-CITE-CITE

Last active /omp style is pair_style reax/c/omp
  update every 10 steps, delay 0 steps, check no
Step Temp PotEng Press E_vdwl E_coul Volume
0          300   -113.27833    439.01652   -111.57687   -1.7014647     23031848
Averages over the last 5001 of 10001 rows, steps 5000 to 10000:
Temp PotEng Press E_vdwl E_coul Volume
292.283 -113.254 11286.3 -111.555 -1.69919 2.30318e+07
Loop time of 35491.5 on 512 procs for 10000 steps with 2042880 atoms

info              time out screen
info              time out log

Info-Info-Info-Info-Info-Info-Info-Info-Info-Info-Info
Printed on Fri Aug 12 06:11:26 2022

Total time information (MPI rank 0):
  CPU time:  631:10:13
 Wall time:    9:51:44

Info-Info-Info-Info-Info-Info-Info-Info-Info-Info-Info

#write_dump        all cfg/mpiio *.cfg.mpiio mass type xs ys zs vx vy vz fx fy fz modify element C H O N # optional

info              time out screen
info              time out log

Info-Info-Info-Info-Info-Info-Info-Info-Info-Info-Info
Printed on Fri Aug 12 06:11:26 2022

Total time information (MPI rank 0):
  CPU time:  631:10:13
 Wall time:    9:51:44

Info-Info-Info-Info-Info-Info-Info-Info-Info-Info-Info
