LAMMPS (2 Jun 2022)
KOKKOS mode is enabled (src/KOKKOS/kokkos.cpp:105)
  will use up to 1 GPU(s) per node
package kokkos
package kokkos gpu/aware on neigh half neigh/qeq full newton on comm device
processors * * * grid twolevel 8 2 2 2
# Pure HNS crystal, ReaxFF tests for benchmarking LAMMPS
# See README for more info

variable          steps index 100
variable          thermo_step index 100

units             real
atom_style        charge
atom_modify sort  100 0.0 # optional
dimension         3
boundary          p p p
box               tilt large

read_data         data.hns-equil
Reading data file ...
  triclinic box = (0 0 0) to (22.326 11.1412 13.778966) with tilt (0 -5.02603 0)
  reading atoms ...
  304 atoms
  reading velocities ...
  304 velocities
replicate         $x $y $z bbox
replicate         34 $y $z bbox
replicate         34 68 $z bbox
replicate         34 68 56 bbox
Replicating atoms ...
  triclinic box = (0 0 0) to (759.084 757.6016 771.6221) with tilt (0 -281.45768 0)
  average # of replicas added to proc = 2881.48 out of 129472 (2.23%)
  39359488 atoms
  replicate CPU = 0.222 seconds

pair_style        reax/c NULL
pair_coeff        * * ffield.reax.hns C H O N

compute           reax all pair reax/c

neighbor          1.0 bin
neigh_modify      every 10 delay 0 check no

timestep          0.1

thermo_style      custom step temp pe press evdwl ecoul vol
thermo_modify     norm yes
thermo            1

velocity          all create 300.0 41279 loop geom

fix               1 all nve
fix               2 all qeq/reax 1 0.0 10.0 1e-6 reax/c # remove "dual" if not using USER-OMP

info              time out screen
info              time out log

Info-Info-Info-Info-Info-Info-Info-Info-Info-Info-Info
Printed on Sun Oct 09 12:46:03 2022

Total time information (MPI rank 0):
  CPU time:    0:00:01
 Wall time:    0:00:00

Info-Info-Info-Info-Info-Info-Info-Info-Info-Info-Info

run               6000

CITE-CITE-CITE-CITE-CITE-CITE-CITE-CITE-CITE-CITE-CITE-CITE-CITE

Your simulation uses code contributions which should be cited:

- pair reaxff command:

@Article{Aktulga12,
 author = {H. M. Aktulga, J. C. Fogarty, S. A. Pandit, A. Y. Grama},
 title = {Parallel reactive molecular dynamics: Numerical methods and algorithmic techniques},
 journal = {Parallel Computing},
 year =    2012,
 volume =  38,
 pages =   {245--259}
}

- fix qeq/reaxff command:

@Article{Aktulga12,
 author = {H. M. Aktulga, J. C. Fogarty, S. A. Pandit, A. Y. Grama},
 title = {Parallel reactive molecular dynamics: Numerical methods and algorithmic techniques},
 journal = {Parallel Computing},
 year =    2012,
 volume =  38,
 pages =   {245--259}
}

CITE-CITE-CITE-CITE-CITE-CITE-CITE-CITE-CITE-CITE-CITE-CITE-CITE

  update every 10 steps, delay 0 steps, check no
Step          Temp          PotEng         Press          E_vdwl         E_coul         Volume
0   300           -113.27833      439.02037     -111.57687     -1.7014647      4.4374695e+08
Averages over the last 3001 of 6001 rows, steps 3000 to 6000:
Temp PotEng Press E_vdwl E_coul Volume
291.65 -113.253 11663.5 -111.554 -1.69887 4.43747e+08
Loop time of 1521.92 on 64 procs for 6000 steps with 39359488 atoms

info              time out screen
info              time out log

Info-Info-Info-Info-Info-Info-Info-Info-Info-Info-Info
Printed on Sun Oct 09 13:11:28 2022

Total time information (MPI rank 0):
  CPU time:    0:44:38
 Wall time:    0:25:24

Info-Info-Info-Info-Info-Info-Info-Info-Info-Info-Info

#write_dump        all cfg/mpiio *.cfg.mpiio mass type xs ys zs vx vy vz fx fy fz modify element C H O N # optional

info              time out screen
info              time out log

Info-Info-Info-Info-Info-Info-Info-Info-Info-Info-Info
Printed on Sun Oct 09 13:11:28 2022

Total time information (MPI rank 0):
  CPU time:    0:44:38
 Wall time:    0:25:24

Info-Info-Info-Info-Info-Info-Info-Info-Info-Info-Info
